$ -------------------------------------------------------------------- $
$ WAVEWATCH III Grid output post-processing ( GrADS )                  $
$ ------------------------------------------------------------------- $
$ Time, time increment and number of outputs.                          $
$
  20181231 000000  3600. 73
$
  N
 WND HS FP DP
$
$ ----------------------------------------------------------------$
$
  0 999 0 999  T T
$
$ -------------------------------------------------------------------- $
$ End of input file                                                    $
$ -------------------------------------------------------------------- $
